<edges>
<edge id='7w1-1' fromnode='1241909291' tonode='1241909688' priority='75' nolanes='2' speed='40' />
<edge id='7w1-2' fromnode='1241909688' tonode='1241909291' priority='75' nolanes='2' speed='40' />
<edge id='7w2-1' fromnode='1241909688' tonode='1241909328' priority='75' nolanes='2' speed='40' />
<edge id='7w2-2' fromnode='1241909328' tonode='1241909688' priority='75' nolanes='2' speed='40' />
<edge id='7w4-1' fromnode='1241909328' tonode='1241908774' priority='75' nolanes='2' speed='40' />
<edge id='7w4-2' fromnode='1241908774' tonode='1241909328' priority='75' nolanes='2' speed='40' />
<edge id='10w0-1' fromnode='1241909016' tonode='1241909291' priority='75' nolanes='2' speed='40' />
<edge id='10w0-2' fromnode='1241909291' tonode='1241909016' priority='75' nolanes='2' speed='40' />
<edge id='10w4-1' fromnode='1241909291' tonode='1241909378' priority='75' nolanes='2' speed='40' />
<edge id='10w4-2' fromnode='1241909378' tonode='1241909291' priority='75' nolanes='2' speed='40' />
<edge id='10w5-1' fromnode='1241909378' tonode='1241909233' priority='75' nolanes='2' speed='40' />
<edge id='10w5-2' fromnode='1241909233' tonode='1241909378' priority='75' nolanes='2' speed='40' />
<edge id='10w8-1' fromnode='1241909233' tonode='1241908830' priority='75' nolanes='2' speed='40' />
<edge id='10w8-2' fromnode='1241908830' tonode='1241909233' priority='75' nolanes='2' speed='40' />
<edge id='10w11-1' fromnode='1241908830' tonode='1241908876' priority='75' nolanes='2' speed='40' />
<edge id='10w11-2' fromnode='1241908876' tonode='1241908830' priority='75' nolanes='2' speed='40' />
<edge id='10w12-1' fromnode='1241908876' tonode='1241909486' priority='75' nolanes='2' speed='40' />
<edge id='10w12-2' fromnode='1241909486' tonode='1241908876' priority='75' nolanes='2' speed='40' />
<edge id='11w0-1' fromnode='1241909291' tonode='1241908734' priority='75' nolanes='2' speed='40' />
<edge id='11w0-2' fromnode='1241908734' tonode='1241909291' priority='75' nolanes='2' speed='40' />
<edge id='11w1-1' fromnode='1241908734' tonode='1241909371' priority='75' nolanes='2' speed='40' />
<edge id='11w1-2' fromnode='1241909371' tonode='1241908734' priority='75' nolanes='2' speed='40' />
<edge id='11w3-1' fromnode='1241909371' tonode='1241909228' priority='75' nolanes='2' speed='40' />
<edge id='11w3-2' fromnode='1241909228' tonode='1241909371' priority='75' nolanes='2' speed='40' />
<edge id='12w0-1' fromnode='2277971447' tonode='1241909328' priority='75' nolanes='2' speed='40' />
<edge id='12w0-2' fromnode='1241909328' tonode='2277971447' priority='75' nolanes='2' speed='40' />
<edge id='13w1-1' fromnode='1241909291' tonode='1241909026' priority='75' nolanes='2' speed='40' />
<edge id='13w1-2' fromnode='1241909026' tonode='1241909291' priority='75' nolanes='2' speed='40' />
<edge id='13w2-1' fromnode='1241909026' tonode='1241909233' priority='75' nolanes='2' speed='40' />
<edge id='13w2-2' fromnode='1241909233' tonode='1241909026' priority='75' nolanes='2' speed='40' />
<edge id='13w6-1' fromnode='1241909233' tonode='1241909037' priority='75' nolanes='2' speed='40' />
<edge id='13w6-2' fromnode='1241909037' tonode='1241909233' priority='75' nolanes='2' speed='40' />
<edge id='13w7-1' fromnode='1241909037' tonode='1241908830' priority='75' nolanes='2' speed='40' />
<edge id='13w7-2' fromnode='1241908830' tonode='1241909037' priority='75' nolanes='2' speed='40' />
<edge id='13w11-1' fromnode='1241908830' tonode='1241909648' priority='75' nolanes='2' speed='40' />
<edge id='13w11-2' fromnode='1241909648' tonode='1241908830' priority='75' nolanes='2' speed='40' />
<edge id='13w12-1' fromnode='1241909648' tonode='1241909365' priority='75' nolanes='2' speed='40' />
<edge id='13w12-2' fromnode='1241909365' tonode='1241909648' priority='75' nolanes='2' speed='40' />
<edge id='14w1-1' fromnode='1241908774' tonode='1241909251' priority='75' nolanes='2' speed='40' />
<edge id='14w1-2' fromnode='1241909251' tonode='1241908774' priority='75' nolanes='2' speed='40' />
<edge id='15w0-1' fromnode='1572017500' tonode='1241909371' priority='75' nolanes='2' speed='40' />
<edge id='15w0-2' fromnode='1241909371' tonode='1572017500' priority='75' nolanes='2' speed='40' />
<edge id='16w3-1' fromnode='1241908830' tonode='1241908704' priority='75' nolanes='2' speed='40' />
<edge id='16w3-2' fromnode='1241908704' tonode='1241908830' priority='75' nolanes='2' speed='40' />
<edge id='16w4-1' fromnode='1241908704' tonode='1241909261' priority='75' nolanes='2' speed='40' />
<edge id='16w4-2' fromnode='1241909261' tonode='1241908704' priority='75' nolanes='2' speed='40' />
<edge id='16w5-1' fromnode='1241909261' tonode='1241652886' priority='75' nolanes='2' speed='40' />
<edge id='16w5-2' fromnode='1241652886' tonode='1241909261' priority='75' nolanes='2' speed='40' />
<edge id='18w0-1' fromnode='1241652873' tonode='1241652454' priority='75' nolanes='2' speed='40' />
<edge id='18w0-2' fromnode='1241652454' tonode='1241652873' priority='75' nolanes='2' speed='40' />
<edge id='18w1-1' fromnode='1241652454' tonode='1572017344' priority='75' nolanes='2' speed='40' />
<edge id='18w1-2' fromnode='1572017344' tonode='1241652454' priority='75' nolanes='2' speed='40' />
<edge id='19w1-1' fromnode='1241652886' tonode='2277971447' priority='75' nolanes='2' speed='40' />
<edge id='19w1-2' fromnode='2277971447' tonode='1241652886' priority='75' nolanes='2' speed='40' />
<edge id='19w4-1' fromnode='2277971447' tonode='1241909232' priority='75' nolanes='2' speed='40' />
<edge id='19w4-2' fromnode='1241909232' tonode='2277971447' priority='75' nolanes='2' speed='40' />
<edge id='19w5-1' fromnode='1241909232' tonode='1241909011' priority='75' nolanes='2' speed='40' />
<edge id='19w5-2' fromnode='1241909011' tonode='1241909232' priority='75' nolanes='2' speed='40' />
<edge id='19w6-1' fromnode='1241909011' tonode='1241908874' priority='75' nolanes='2' speed='40' />
<edge id='19w6-2' fromnode='1241908874' tonode='1241909011' priority='75' nolanes='2' speed='40' />
<edge id='19w7-1' fromnode='1241908874' tonode='1241909609' priority='75' nolanes='2' speed='40' />
<edge id='19w7-2' fromnode='1241909609' tonode='1241908874' priority='75' nolanes='2' speed='40' />
<edge id='19w8-1' fromnode='1241909609' tonode='1241909294' priority='75' nolanes='2' speed='40' />
<edge id='19w8-2' fromnode='1241909294' tonode='1241909609' priority='75' nolanes='2' speed='40' />
<edge id='19w9-1' fromnode='1241909294' tonode='1241909129' priority='75' nolanes='2' speed='40' />
<edge id='19w9-2' fromnode='1241909129' tonode='1241909294' priority='75' nolanes='2' speed='40' />
<edge id='19w10-1' fromnode='1241909129' tonode='1241909474' priority='75' nolanes='2' speed='40' />
<edge id='19w10-2' fromnode='1241909474' tonode='1241909129' priority='75' nolanes='2' speed='40' />
<edge id='19w11-1' fromnode='1241909474' tonode='1241909008' priority='75' nolanes='2' speed='40' />
<edge id='19w11-2' fromnode='1241909008' tonode='1241909474' priority='75' nolanes='2' speed='40' />
<edge id='21w1-1' fromnode='1241909597' tonode='1241909283' priority='75' nolanes='2' speed='40' />
<edge id='21w1-2' fromnode='1241909283' tonode='1241909597' priority='75' nolanes='2' speed='40' />
<edge id='21w2-1' fromnode='1241909283' tonode='1241909109' priority='75' nolanes='2' speed='40' />
<edge id='21w2-2' fromnode='1241909109' tonode='1241909283' priority='75' nolanes='2' speed='40' />
<edge id='21w5-1' fromnode='1241909109' tonode='1241908965' priority='75' nolanes='2' speed='40' />
<edge id='21w5-2' fromnode='1241908965' tonode='1241909109' priority='75' nolanes='2' speed='40' />
<edge id='21w6-1' fromnode='1241908965' tonode='1241909228' priority='75' nolanes='2' speed='40' />
<edge id='21w6-2' fromnode='1241909228' tonode='1241908965' priority='75' nolanes='2' speed='40' />
<edge id='21w11-1' fromnode='1241909228' tonode='1241909074' priority='75' nolanes='2' speed='40' />
<edge id='21w11-2' fromnode='1241909074' tonode='1241909228' priority='75' nolanes='2' speed='40' />
<edge id='21w12-1' fromnode='1241909074' tonode='1241908806' priority='75' nolanes='2' speed='40' />
<edge id='21w12-2' fromnode='1241908806' tonode='1241909074' priority='75' nolanes='2' speed='40' />
<edge id='21w13-1' fromnode='1241908806' tonode='1241909415' priority='75' nolanes='2' speed='40' />
<edge id='21w13-2' fromnode='1241909415' tonode='1241908806' priority='75' nolanes='2' speed='40' />
<edge id='23w0-1' fromnode='1241908830' tonode='1241909461' priority='75' nolanes='2' speed='40' />
<edge id='23w0-2' fromnode='1241909461' tonode='1241908830' priority='75' nolanes='2' speed='40' />
<edge id='23w1-1' fromnode='1241909461' tonode='1241909597' priority='75' nolanes='2' speed='40' />
<edge id='23w1-2' fromnode='1241909597' tonode='1241909461' priority='75' nolanes='2' speed='40' />
<edge id='24w0-1' fromnode='1241909008' tonode='1241909286' priority='75' nolanes='2' speed='40' />
<edge id='24w0-2' fromnode='1241909286' tonode='1241909008' priority='75' nolanes='2' speed='40' />
<edge id='24w1-1' fromnode='1241909286' tonode='1241908992' priority='75' nolanes='2' speed='40' />
<edge id='24w1-2' fromnode='1241908992' tonode='1241909286' priority='75' nolanes='2' speed='40' />
<edge id='24w2-1' fromnode='1241908992' tonode='1241908723' priority='75' nolanes='2' speed='40' />
<edge id='24w2-2' fromnode='1241908723' tonode='1241908992' priority='75' nolanes='2' speed='40' />
<edge id='24w3-1' fromnode='1241908723' tonode='1241909599' priority='75' nolanes='2' speed='40' />
<edge id='24w3-2' fromnode='1241909599' tonode='1241908723' priority='75' nolanes='2' speed='40' />
<edge id='24w4-1' fromnode='1241909599' tonode='1241909337' priority='75' nolanes='2' speed='40' />
<edge id='24w4-2' fromnode='1241909337' tonode='1241909599' priority='75' nolanes='2' speed='40' />
<edge id='24w5-1' fromnode='1241909337' tonode='1241909111' priority='75' nolanes='2' speed='40' />
<edge id='24w5-2' fromnode='1241909111' tonode='1241909337' priority='75' nolanes='2' speed='40' />
<edge id='24w6-1' fromnode='1241909111' tonode='1241908848' priority='75' nolanes='2' speed='40' />
<edge id='24w6-2' fromnode='1241908848' tonode='1241909111' priority='75' nolanes='2' speed='40' />
<edge id='24w7-1' fromnode='1241908848' tonode='1241909728' priority='75' nolanes='2' speed='40' />
<edge id='24w7-2' fromnode='1241909728' tonode='1241908848' priority='75' nolanes='2' speed='40' />
<edge id='24w8-1' fromnode='1241909728' tonode='1241908774' priority='75' nolanes='2' speed='40' />
<edge id='24w8-2' fromnode='1241908774' tonode='1241909728' priority='75' nolanes='2' speed='40' />
<edge id='25w4-1' fromnode='1241909233' tonode='1241909122' priority='75' nolanes='2' speed='40' />
<edge id='25w4-2' fromnode='1241909122' tonode='1241909233' priority='75' nolanes='2' speed='40' />
<edge id='25w5-1' fromnode='1241909122' tonode='1241908740' priority='75' nolanes='2' speed='40' />
<edge id='25w5-2' fromnode='1241908740' tonode='1241909122' priority='75' nolanes='2' speed='40' />
<edge id='25w6-1' fromnode='1241908740' tonode='1241909109' priority='75' nolanes='2' speed='40' />
<edge id='25w6-2' fromnode='1241909109' tonode='1241908740' priority='75' nolanes='2' speed='40' />
<edge id='26w0-1' fromnode='1241909109' tonode='1241908864' priority='75' nolanes='2' speed='40' />
<edge id='26w0-2' fromnode='1241908864' tonode='1241909109' priority='75' nolanes='2' speed='40' />
<edge id='26w1-1' fromnode='1241908864' tonode='1241909122' priority='75' nolanes='2' speed='40' />
<edge id='26w1-2' fromnode='1241909122' tonode='1241908864' priority='75' nolanes='2' speed='40' />
<edge id='28w2-1' fromnode='1572017344' tonode='1241652640' priority='75' nolanes='2' speed='40' />
<edge id='28w2-2' fromnode='1241652640' tonode='1572017344' priority='75' nolanes='2' speed='40' />
<edge id='34w5-1' fromnode='1241909233' tonode='1241909273' priority='75' nolanes='2' speed='40' />
<edge id='34w5-2' fromnode='1241909273' tonode='1241909233' priority='75' nolanes='2' speed='40' />
<edge id='34w6-1' fromnode='1241909273' tonode='1241909291' priority='75' nolanes='2' speed='40' />
<edge id='34w6-2' fromnode='1241909291' tonode='1241909273' priority='75' nolanes='2' speed='40' />
<edge id='35w5-1' fromnode='1241909233' tonode='1241909291' priority='75' nolanes='2' speed='40' />
<edge id='35w5-2' fromnode='1241909291' tonode='1241909233' priority='75' nolanes='2' speed='40' />
<edge id='39w2-1' fromnode='1241652886' tonode='1241908704' priority='75' nolanes='2' speed='40' />
<edge id='39w2-2' fromnode='1241908704' tonode='1241652886' priority='75' nolanes='2' speed='40' />
<edge id='42w0-1' fromnode='1848255425' tonode='1848255426' priority='75' nolanes='2' speed='40' />
<edge id='42w0-2' fromnode='1848255426' tonode='1848255425' priority='75' nolanes='2' speed='40' />
<edge id='42w1-1' fromnode='1848255426' tonode='1848255427' priority='75' nolanes='2' speed='40' />
<edge id='42w1-2' fromnode='1848255427' tonode='1848255426' priority='75' nolanes='2' speed='40' />
<edge id='42w2-1' fromnode='1848255427' tonode='1848255428' priority='75' nolanes='2' speed='40' />
<edge id='42w2-2' fromnode='1848255428' tonode='1848255427' priority='75' nolanes='2' speed='40' />
<edge id='42w3-1' fromnode='1848255428' tonode='1848255429' priority='75' nolanes='2' speed='40' />
<edge id='42w3-2' fromnode='1848255429' tonode='1848255428' priority='75' nolanes='2' speed='40' />
<edge id='42w4-1' fromnode='1848255429' tonode='1848255430' priority='75' nolanes='2' speed='40' />
<edge id='42w4-2' fromnode='1848255430' tonode='1848255429' priority='75' nolanes='2' speed='40' />
<edge id='42w5-1' fromnode='1848255430' tonode='1848255431' priority='75' nolanes='2' speed='40' />
<edge id='42w5-2' fromnode='1848255431' tonode='1848255430' priority='75' nolanes='2' speed='40' />
<edge id='42w6-1' fromnode='1848255431' tonode='1848255432' priority='75' nolanes='2' speed='40' />
<edge id='42w6-2' fromnode='1848255432' tonode='1848255431' priority='75' nolanes='2' speed='40' />
<edge id='42w7-1' fromnode='1848255432' tonode='1241652886' priority='75' nolanes='2' speed='40' />
<edge id='42w7-2' fromnode='1241652886' tonode='1848255432' priority='75' nolanes='2' speed='40' />
<edge id='42w11-1' fromnode='1241652886' tonode='1848255437' priority='75' nolanes='2' speed='40' />
<edge id='42w11-2' fromnode='1848255437' tonode='1241652886' priority='75' nolanes='2' speed='40' />
<edge id='42w12-1' fromnode='1848255437' tonode='1848255438' priority='75' nolanes='2' speed='40' />
<edge id='42w12-2' fromnode='1848255438' tonode='1848255437' priority='75' nolanes='2' speed='40' />
<edge id='42w13-1' fromnode='1848255438' tonode='1848255439' priority='75' nolanes='2' speed='40' />
<edge id='42w13-2' fromnode='1848255439' tonode='1848255438' priority='75' nolanes='2' speed='40' />
<edge id='42w14-1' fromnode='1848255439' tonode='1848255440' priority='75' nolanes='2' speed='40' />
<edge id='42w14-2' fromnode='1848255440' tonode='1848255439' priority='75' nolanes='2' speed='40' />
<edge id='42w15-1' fromnode='1848255440' tonode='1848255441' priority='75' nolanes='2' speed='40' />
<edge id='42w15-2' fromnode='1848255441' tonode='1848255440' priority='75' nolanes='2' speed='40' />
<edge id='42w16-1' fromnode='1848255441' tonode='1848255442' priority='75' nolanes='2' speed='40' />
<edge id='42w16-2' fromnode='1848255442' tonode='1848255441' priority='75' nolanes='2' speed='40' />
<edge id='42w17-1' fromnode='1848255442' tonode='1848255443' priority='75' nolanes='2' speed='40' />
<edge id='42w17-2' fromnode='1848255443' tonode='1848255442' priority='75' nolanes='2' speed='40' />
<edge id='42w18-1' fromnode='1848255443' tonode='1848255444' priority='75' nolanes='2' speed='40' />
<edge id='42w18-2' fromnode='1848255444' tonode='1848255443' priority='75' nolanes='2' speed='40' />
<edge id='42w19-1' fromnode='1848255444' tonode='1848255445' priority='75' nolanes='2' speed='40' />
<edge id='42w19-2' fromnode='1848255445' tonode='1848255444' priority='75' nolanes='2' speed='40' />
<edge id='42w20-1' fromnode='1848255445' tonode='1848255446' priority='75' nolanes='2' speed='40' />
<edge id='42w20-2' fromnode='1848255446' tonode='1848255445' priority='75' nolanes='2' speed='40' />
<edge id='42w21-1' fromnode='1848255446' tonode='1848255447' priority='75' nolanes='2' speed='40' />
<edge id='42w21-2' fromnode='1848255447' tonode='1848255446' priority='75' nolanes='2' speed='40' />
</edges>