<edges>
<edge id='0w88-1' fromnode='1549254144' tonode='1549254252' priority='75' nolanes='2' speed='40' />
<edge id='0w88-2' fromnode='1549254252' tonode='1549254144' priority='75' nolanes='2' speed='40' />
<edge id='0w89-1' fromnode='1549254252' tonode='1549254030' priority='75' nolanes='2' speed='40' />
<edge id='0w89-2' fromnode='1549254030' tonode='1549254252' priority='75' nolanes='2' speed='40' />
<edge id='0w90-1' fromnode='1549254030' tonode='1549253988' priority='75' nolanes='2' speed='40' />
<edge id='0w90-2' fromnode='1549253988' tonode='1549254030' priority='75' nolanes='2' speed='40' />
<edge id='0w91-1' fromnode='1549253988' tonode='1549254077' priority='75' nolanes='2' speed='40' />
<edge id='0w91-2' fromnode='1549254077' tonode='1549253988' priority='75' nolanes='2' speed='40' />
<edge id='0w92-1' fromnode='1549254077' tonode='1549253971' priority='75' nolanes='2' speed='40' />
<edge id='0w92-2' fromnode='1549253971' tonode='1549254077' priority='75' nolanes='2' speed='40' />
<edge id='0w93-1' fromnode='1549253971' tonode='1549253886' priority='75' nolanes='2' speed='40' />
<edge id='0w93-2' fromnode='1549253886' tonode='1549253971' priority='75' nolanes='2' speed='40' />
<edge id='0w94-1' fromnode='1549253886' tonode='1549254053' priority='75' nolanes='2' speed='40' />
<edge id='0w94-2' fromnode='1549254053' tonode='1549253886' priority='75' nolanes='2' speed='40' />
<edge id='0w95-1' fromnode='1549254053' tonode='1549253852' priority='75' nolanes='2' speed='40' />
<edge id='0w95-2' fromnode='1549253852' tonode='1549254053' priority='75' nolanes='2' speed='40' />
<edge id='0w96-1' fromnode='1549253852' tonode='1549254210' priority='75' nolanes='2' speed='40' />
<edge id='0w96-2' fromnode='1549254210' tonode='1549253852' priority='75' nolanes='2' speed='40' />
<edge id='0w97-1' fromnode='1549254210' tonode='1549254032' priority='75' nolanes='2' speed='40' />
<edge id='0w97-2' fromnode='1549254032' tonode='1549254210' priority='75' nolanes='2' speed='40' />
<edge id='0w98-1' fromnode='1549254032' tonode='1549254225' priority='75' nolanes='2' speed='40' />
<edge id='0w98-2' fromnode='1549254225' tonode='1549254032' priority='75' nolanes='2' speed='40' />
<edge id='0w99-1' fromnode='1549254225' tonode='1549253991' priority='75' nolanes='2' speed='40' />
<edge id='0w99-2' fromnode='1549253991' tonode='1549254225' priority='75' nolanes='2' speed='40' />
<edge id='0w100-1' fromnode='1549253991' tonode='1549254028' priority='75' nolanes='2' speed='40' />
<edge id='0w100-2' fromnode='1549254028' tonode='1549253991' priority='75' nolanes='2' speed='40' />
<edge id='0w101-1' fromnode='1549254028' tonode='1549253904' priority='75' nolanes='2' speed='40' />
<edge id='0w101-2' fromnode='1549253904' tonode='1549254028' priority='75' nolanes='2' speed='40' />
<edge id='0w102-1' fromnode='1549253904' tonode='1549254009' priority='75' nolanes='2' speed='40' />
<edge id='0w102-2' fromnode='1549254009' tonode='1549253904' priority='75' nolanes='2' speed='40' />
<edge id='0w103-1' fromnode='1549254009' tonode='1549253840' priority='75' nolanes='2' speed='40' />
<edge id='0w103-2' fromnode='1549253840' tonode='1549254009' priority='75' nolanes='2' speed='40' />
<edge id='0w104-1' fromnode='1549253840' tonode='1549253949' priority='75' nolanes='2' speed='40' />
<edge id='0w104-2' fromnode='1549253949' tonode='1549253840' priority='75' nolanes='2' speed='40' />
<edge id='0w105-1' fromnode='1549253949' tonode='1549254168' priority='75' nolanes='2' speed='40' />
<edge id='0w105-2' fromnode='1549254168' tonode='1549253949' priority='75' nolanes='2' speed='40' />
<edge id='0w106-1' fromnode='1549254168' tonode='1549253911' priority='75' nolanes='2' speed='40' />
<edge id='0w106-2' fromnode='1549253911' tonode='1549254168' priority='75' nolanes='2' speed='40' />
<edge id='0w107-1' fromnode='1549253911' tonode='1549253925' priority='75' nolanes='2' speed='40' />
<edge id='0w107-2' fromnode='1549253925' tonode='1549253911' priority='75' nolanes='2' speed='40' />
<edge id='0w108-1' fromnode='1549253925' tonode='1549253846' priority='75' nolanes='2' speed='40' />
<edge id='0w108-2' fromnode='1549253846' tonode='1549253925' priority='75' nolanes='2' speed='40' />
<edge id='0w109-1' fromnode='1549253846' tonode='1549253881' priority='75' nolanes='2' speed='40' />
<edge id='0w109-2' fromnode='1549253881' tonode='1549253846' priority='75' nolanes='2' speed='40' />
<edge id='1w0-1' fromnode='310212641' tonode='310212635' priority='75' nolanes='2' speed='40' />
<edge id='1w0-2' fromnode='310212635' tonode='310212641' priority='75' nolanes='2' speed='40' />
<edge id='2w0-1' fromnode='1625642305' tonode='1625642303' priority='75' nolanes='2' speed='40' />
<edge id='2w0-2' fromnode='1625642303' tonode='1625642305' priority='75' nolanes='2' speed='40' />
<edge id='2w1-1' fromnode='1625642303' tonode='310212645' priority='75' nolanes='2' speed='40' />
<edge id='2w1-2' fromnode='310212645' tonode='1625642303' priority='75' nolanes='2' speed='40' />
<edge id='2w2-1' fromnode='310212645' tonode='310212648' priority='75' nolanes='2' speed='40' />
<edge id='2w2-2' fromnode='310212648' tonode='310212645' priority='75' nolanes='2' speed='40' />
<edge id='3w0-1' fromnode='310212634' tonode='310212636' priority='75' nolanes='2' speed='40' />
<edge id='3w0-2' fromnode='310212636' tonode='310212634' priority='75' nolanes='2' speed='40' />
<edge id='3w1-1' fromnode='310212636' tonode='310212645' priority='75' nolanes='2' speed='40' />
<edge id='3w1-2' fromnode='310212645' tonode='310212636' priority='75' nolanes='2' speed='40' />
<edge id='3w2-1' fromnode='310212645' tonode='310212635' priority='75' nolanes='2' speed='40' />
<edge id='3w2-2' fromnode='310212635' tonode='310212645' priority='75' nolanes='2' speed='40' />
<edge id='4w0-1' fromnode='453417410' tonode='453417411' priority='75' nolanes='2' speed='40' />
<edge id='4w0-2' fromnode='453417411' tonode='453417410' priority='75' nolanes='2' speed='40' />
<edge id='4w1-1' fromnode='453417411' tonode='453417414' priority='75' nolanes='2' speed='40' />
<edge id='4w1-2' fromnode='453417414' tonode='453417411' priority='75' nolanes='2' speed='40' />
<edge id='4w2-1' fromnode='453417414' tonode='453417415' priority='75' nolanes='2' speed='40' />
<edge id='4w2-2' fromnode='453417415' tonode='453417414' priority='75' nolanes='2' speed='40' />
<edge id='4w3-1' fromnode='453417415' tonode='453417418' priority='75' nolanes='2' speed='40' />
<edge id='4w3-2' fromnode='453417418' tonode='453417415' priority='75' nolanes='2' speed='40' />
<edge id='5w8-1' fromnode='1565975170' tonode='1847963904' priority='75' nolanes='2' speed='40' />
<edge id='5w8-2' fromnode='1847963904' tonode='1565975170' priority='75' nolanes='2' speed='40' />
<edge id='5w9-1' fromnode='1847963904' tonode='1847963916' priority='75' nolanes='2' speed='40' />
<edge id='5w9-2' fromnode='1847963916' tonode='1847963904' priority='75' nolanes='2' speed='40' />
<edge id='5w10-1' fromnode='1847963916' tonode='453417317' priority='75' nolanes='2' speed='40' />
<edge id='5w10-2' fromnode='453417317' tonode='1847963916' priority='75' nolanes='2' speed='40' />
<edge id='5w11-1' fromnode='453417317' tonode='453417314' priority='75' nolanes='2' speed='40' />
<edge id='5w11-2' fromnode='453417314' tonode='453417317' priority='75' nolanes='2' speed='40' />
<edge id='5w12-1' fromnode='453417314' tonode='1629230664' priority='75' nolanes='2' speed='40' />
<edge id='5w12-2' fromnode='1629230664' tonode='453417314' priority='75' nolanes='2' speed='40' />
<edge id='5w13-1' fromnode='1629230664' tonode='453417313' priority='75' nolanes='2' speed='40' />
<edge id='5w13-2' fromnode='453417313' tonode='1629230664' priority='75' nolanes='2' speed='40' />
<edge id='5w14-1' fromnode='453417313' tonode='453417310' priority='75' nolanes='2' speed='40' />
<edge id='5w14-2' fromnode='453417310' tonode='453417313' priority='75' nolanes='2' speed='40' />
<edge id='5w15-1' fromnode='453417310' tonode='1565975112' priority='75' nolanes='2' speed='40' />
<edge id='5w15-2' fromnode='1565975112' tonode='453417310' priority='75' nolanes='2' speed='40' />
<edge id='6w0-1' fromnode='1241652772' tonode='1241909252' priority='75' nolanes='2' speed='40' />
<edge id='6w0-2' fromnode='1241909252' tonode='1241652772' priority='75' nolanes='2' speed='40' />
<edge id='6w1-1' fromnode='1241909252' tonode='1241909167' priority='75' nolanes='2' speed='40' />
<edge id='6w1-2' fromnode='1241909167' tonode='1241909252' priority='75' nolanes='2' speed='40' />
<edge id='6w2-1' fromnode='1241909167' tonode='1241908910' priority='75' nolanes='2' speed='40' />
<edge id='6w2-2' fromnode='1241908910' tonode='1241909167' priority='75' nolanes='2' speed='40' />
<edge id='6w3-1' fromnode='1241908910' tonode='1241909540' priority='75' nolanes='2' speed='40' />
<edge id='6w3-2' fromnode='1241909540' tonode='1241908910' priority='75' nolanes='2' speed='40' />
<edge id='6w4-1' fromnode='1241909540' tonode='1241909313' priority='75' nolanes='2' speed='40' />
<edge id='6w4-2' fromnode='1241909313' tonode='1241909540' priority='75' nolanes='2' speed='40' />
<edge id='6w5-1' fromnode='1241909313' tonode='1565975371' priority='75' nolanes='2' speed='40' />
<edge id='6w5-2' fromnode='1565975371' tonode='1241909313' priority='75' nolanes='2' speed='40' />
<edge id='6w6-1' fromnode='1565975371' tonode='1565975115' priority='75' nolanes='2' speed='40' />
<edge id='6w6-2' fromnode='1565975115' tonode='1565975371' priority='75' nolanes='2' speed='40' />
<edge id='6w7-1' fromnode='1565975115' tonode='1565975153' priority='75' nolanes='2' speed='40' />
<edge id='6w7-2' fromnode='1565975153' tonode='1565975115' priority='75' nolanes='2' speed='40' />
<edge id='6w8-1' fromnode='1565975153' tonode='453417356' priority='75' nolanes='2' speed='40' />
<edge id='6w8-2' fromnode='453417356' tonode='1565975153' priority='75' nolanes='2' speed='40' />
<edge id='6w9-1' fromnode='453417356' tonode='453417359' priority='75' nolanes='2' speed='40' />
<edge id='6w9-2' fromnode='453417359' tonode='453417356' priority='75' nolanes='2' speed='40' />
<edge id='6w10-1' fromnode='453417359' tonode='453417360' priority='75' nolanes='2' speed='40' />
<edge id='6w10-2' fromnode='453417360' tonode='453417359' priority='75' nolanes='2' speed='40' />
<edge id='6w11-1' fromnode='453417360' tonode='453417363' priority='75' nolanes='2' speed='40' />
<edge id='6w11-2' fromnode='453417363' tonode='453417360' priority='75' nolanes='2' speed='40' />
<edge id='6w12-1' fromnode='453417363' tonode='453417364' priority='75' nolanes='2' speed='40' />
<edge id='6w12-2' fromnode='453417364' tonode='453417363' priority='75' nolanes='2' speed='40' />
<edge id='6w13-1' fromnode='453417364' tonode='453417367' priority='75' nolanes='2' speed='40' />
<edge id='6w13-2' fromnode='453417367' tonode='453417364' priority='75' nolanes='2' speed='40' />
<edge id='6w14-1' fromnode='453417367' tonode='453417369' priority='75' nolanes='2' speed='40' />
<edge id='6w14-2' fromnode='453417369' tonode='453417367' priority='75' nolanes='2' speed='40' />
<edge id='6w15-1' fromnode='453417369' tonode='453417370' priority='75' nolanes='2' speed='40' />
<edge id='6w15-2' fromnode='453417370' tonode='453417369' priority='75' nolanes='2' speed='40' />
<edge id='6w16-1' fromnode='453417370' tonode='453417373' priority='75' nolanes='2' speed='40' />
<edge id='6w16-2' fromnode='453417373' tonode='453417370' priority='75' nolanes='2' speed='40' />
<edge id='6w17-1' fromnode='453417373' tonode='453417374' priority='75' nolanes='2' speed='40' />
<edge id='6w17-2' fromnode='453417374' tonode='453417373' priority='75' nolanes='2' speed='40' />
<edge id='6w18-1' fromnode='453417374' tonode='1565975276' priority='75' nolanes='2' speed='40' />
<edge id='6w18-2' fromnode='1565975276' tonode='453417374' priority='75' nolanes='2' speed='40' />
<edge id='6w19-1' fromnode='1565975276' tonode='1565975136' priority='75' nolanes='2' speed='40' />
<edge id='6w19-2' fromnode='1565975136' tonode='1565975276' priority='75' nolanes='2' speed='40' />
<edge id='6w20-1' fromnode='1565975136' tonode='1565975199' priority='75' nolanes='2' speed='40' />
<edge id='6w20-2' fromnode='1565975199' tonode='1565975136' priority='75' nolanes='2' speed='40' />
<edge id='7w0-1' fromnode='453417397' tonode='1575125093' priority='75' nolanes='2' speed='40' />
<edge id='7w0-2' fromnode='1575125093' tonode='453417397' priority='75' nolanes='2' speed='40' />
<edge id='7w1-1' fromnode='1575125093' tonode='453417395' priority='75' nolanes='2' speed='40' />
<edge id='7w1-2' fromnode='453417395' tonode='1575125093' priority='75' nolanes='2' speed='40' />
<edge id='7w2-1' fromnode='453417395' tonode='1164694429' priority='75' nolanes='2' speed='40' />
<edge id='7w2-2' fromnode='1164694429' tonode='453417395' priority='75' nolanes='2' speed='40' />
<edge id='7w3-1' fromnode='1164694429' tonode='1550130399' priority='75' nolanes='2' speed='40' />
<edge id='7w3-2' fromnode='1550130399' tonode='1164694429' priority='75' nolanes='2' speed='40' />
<edge id='7w4-1' fromnode='1550130399' tonode='453417398' priority='75' nolanes='2' speed='40' />
<edge id='7w4-2' fromnode='453417398' tonode='1550130399' priority='75' nolanes='2' speed='40' />
<edge id='7w5-1' fromnode='453417398' tonode='453417401' priority='75' nolanes='2' speed='40' />
<edge id='7w5-2' fromnode='453417401' tonode='453417398' priority='75' nolanes='2' speed='40' />
<edge id='8w0-1' fromnode='316236281' tonode='316236287' priority='75' nolanes='2' speed='40' />
<edge id='8w0-2' fromnode='316236287' tonode='316236281' priority='75' nolanes='2' speed='40' />
<edge id='8w1-1' fromnode='316236287' tonode='316236292' priority='75' nolanes='2' speed='40' />
<edge id='8w1-2' fromnode='316236292' tonode='316236287' priority='75' nolanes='2' speed='40' />
<edge id='8w2-1' fromnode='316236292' tonode='1549365176' priority='75' nolanes='2' speed='40' />
<edge id='8w2-2' fromnode='1549365176' tonode='316236292' priority='75' nolanes='2' speed='40' />
<edge id='8w3-1' fromnode='1549365176' tonode='316236297' priority='75' nolanes='2' speed='40' />
<edge id='8w3-2' fromnode='316236297' tonode='1549365176' priority='75' nolanes='2' speed='40' />
<edge id='8w4-1' fromnode='316236297' tonode='316236303' priority='75' nolanes='2' speed='40' />
<edge id='8w4-2' fromnode='316236303' tonode='316236297' priority='75' nolanes='2' speed='40' />
<edge id='8w5-1' fromnode='316236303' tonode='316236308' priority='75' nolanes='2' speed='40' />
<edge id='8w5-2' fromnode='316236308' tonode='316236303' priority='75' nolanes='2' speed='40' />
<edge id='8w6-1' fromnode='316236308' tonode='316236313' priority='75' nolanes='2' speed='40' />
<edge id='8w6-2' fromnode='316236313' tonode='316236308' priority='75' nolanes='2' speed='40' />
<edge id='8w7-1' fromnode='316236313' tonode='1549365413' priority='75' nolanes='2' speed='40' />
<edge id='8w7-2' fromnode='1549365413' tonode='316236313' priority='75' nolanes='2' speed='40' />
<edge id='8w8-1' fromnode='1549365413' tonode='1549365163' priority='75' nolanes='2' speed='40' />
<edge id='8w8-2' fromnode='1549365163' tonode='1549365413' priority='75' nolanes='2' speed='40' />
<edge id='9w0-1' fromnode='310212561' tonode='310212568' priority='75' nolanes='2' speed='40' />
<edge id='9w0-2' fromnode='310212568' tonode='310212561' priority='75' nolanes='2' speed='40' />
<edge id='9w1-1' fromnode='310212568' tonode='1626924799' priority='75' nolanes='2' speed='40' />
<edge id='9w1-2' fromnode='1626924799' tonode='310212568' priority='75' nolanes='2' speed='40' />
<edge id='9w2-1' fromnode='1626924799' tonode='1626924775' priority='75' nolanes='2' speed='40' />
<edge id='9w2-2' fromnode='1626924775' tonode='1626924799' priority='75' nolanes='2' speed='40' />
<edge id='9w3-1' fromnode='1626924775' tonode='310212586' priority='75' nolanes='2' speed='40' />
<edge id='9w3-2' fromnode='310212586' tonode='1626924775' priority='75' nolanes='2' speed='40' />
<edge id='9w4-1' fromnode='310212586' tonode='1625187334' priority='75' nolanes='2' speed='40' />
<edge id='9w4-2' fromnode='1625187334' tonode='310212586' priority='75' nolanes='2' speed='40' />
<edge id='9w5-1' fromnode='1625187334' tonode='1625187329' priority='75' nolanes='2' speed='40' />
<edge id='9w5-2' fromnode='1625187329' tonode='1625187334' priority='75' nolanes='2' speed='40' />
<edge id='9w6-1' fromnode='1625187329' tonode='1241652424' priority='75' nolanes='2' speed='40' />
<edge id='9w6-2' fromnode='1241652424' tonode='1625187329' priority='75' nolanes='2' speed='40' />
<edge id='10w12-1' fromnode='1543938264' tonode='1530997738' priority='75' nolanes='2' speed='40' />
<edge id='10w12-2' fromnode='1530997738' tonode='1543938264' priority='75' nolanes='2' speed='40' />
<edge id='10w13-1' fromnode='1530997738' tonode='1575179994' priority='75' nolanes='2' speed='40' />
<edge id='10w13-2' fromnode='1575179994' tonode='1530997738' priority='75' nolanes='2' speed='40' />
<edge id='10w14-1' fromnode='1575179994' tonode='1575180013' priority='75' nolanes='2' speed='40' />
<edge id='10w14-2' fromnode='1575180013' tonode='1575179994' priority='75' nolanes='2' speed='40' />
<edge id='10w15-1' fromnode='1575180013' tonode='1550130482' priority='75' nolanes='2' speed='40' />
<edge id='10w15-2' fromnode='1550130482' tonode='1575180013' priority='75' nolanes='2' speed='40' />
<edge id='10w16-1' fromnode='1550130482' tonode='1550130451' priority='75' nolanes='2' speed='40' />
<edge id='10w16-2' fromnode='1550130451' tonode='1550130482' priority='75' nolanes='2' speed='40' />
<edge id='10w17-1' fromnode='1550130451' tonode='1550131011' priority='75' nolanes='2' speed='40' />
<edge id='10w17-2' fromnode='1550131011' tonode='1550130451' priority='75' nolanes='2' speed='40' />
<edge id='10w18-1' fromnode='1550131011' tonode='1530997763' priority='75' nolanes='2' speed='40' />
<edge id='10w18-2' fromnode='1530997763' tonode='1550131011' priority='75' nolanes='2' speed='40' />
<edge id='10w19-1' fromnode='1530997763' tonode='1604533192' priority='75' nolanes='2' speed='40' />
<edge id='10w19-2' fromnode='1604533192' tonode='1530997763' priority='75' nolanes='2' speed='40' />
<edge id='10w20-1' fromnode='1604533192' tonode='1604533246' priority='75' nolanes='2' speed='40' />
<edge id='10w20-2' fromnode='1604533246' tonode='1604533192' priority='75' nolanes='2' speed='40' />
<edge id='10w21-1' fromnode='1604533246' tonode='1604621512' priority='75' nolanes='2' speed='40' />
<edge id='10w21-2' fromnode='1604621512' tonode='1604533246' priority='75' nolanes='2' speed='40' />
<edge id='10w22-1' fromnode='1604621512' tonode='1604621355' priority='75' nolanes='2' speed='40' />
<edge id='10w22-2' fromnode='1604621355' tonode='1604621512' priority='75' nolanes='2' speed='40' />
<edge id='10w23-1' fromnode='1604621355' tonode='1603987561' priority='75' nolanes='2' speed='40' />
<edge id='10w23-2' fromnode='1603987561' tonode='1604621355' priority='75' nolanes='2' speed='40' />
<edge id='10w24-1' fromnode='1603987561' tonode='1603983043' priority='75' nolanes='2' speed='40' />
<edge id='10w24-2' fromnode='1603983043' tonode='1603987561' priority='75' nolanes='2' speed='40' />
<edge id='10w25-1' fromnode='1603983043' tonode='1603987624' priority='75' nolanes='2' speed='40' />
<edge id='10w25-2' fromnode='1603987624' tonode='1603983043' priority='75' nolanes='2' speed='40' />
<edge id='10w26-1' fromnode='1603987624' tonode='1531160057' priority='75' nolanes='2' speed='40' />
<edge id='10w26-2' fromnode='1531160057' tonode='1603987624' priority='75' nolanes='2' speed='40' />
<edge id='10w27-1' fromnode='1531160057' tonode='1603982506' priority='75' nolanes='2' speed='40' />
<edge id='10w27-2' fromnode='1603982506' tonode='1531160057' priority='75' nolanes='2' speed='40' />
<edge id='10w28-1' fromnode='1603982506' tonode='1604621376' priority='75' nolanes='2' speed='40' />
<edge id='10w28-2' fromnode='1604621376' tonode='1603982506' priority='75' nolanes='2' speed='40' />
<edge id='10w29-1' fromnode='1604621376' tonode='1603982627' priority='75' nolanes='2' speed='40' />
<edge id='10w29-2' fromnode='1603982627' tonode='1604621376' priority='75' nolanes='2' speed='40' />
<edge id='10w30-1' fromnode='1603982627' tonode='2351814874' priority='75' nolanes='2' speed='40' />
<edge id='10w30-2' fromnode='2351814874' tonode='1603982627' priority='75' nolanes='2' speed='40' />
<edge id='10w31-1' fromnode='2351814874' tonode='2351814871' priority='75' nolanes='2' speed='40' />
<edge id='10w31-2' fromnode='2351814871' tonode='2351814874' priority='75' nolanes='2' speed='40' />
<edge id='10w32-1' fromnode='2351814871' tonode='2351814867' priority='75' nolanes='2' speed='40' />
<edge id='10w32-2' fromnode='2351814867' tonode='2351814871' priority='75' nolanes='2' speed='40' />
<edge id='10w33-1' fromnode='2351814867' tonode='1627883022' priority='75' nolanes='2' speed='40' />
<edge id='10w33-2' fromnode='1627883022' tonode='2351814867' priority='75' nolanes='2' speed='40' />
<edge id='10w34-1' fromnode='1627883022' tonode='1627883013' priority='75' nolanes='2' speed='40' />
<edge id='10w34-2' fromnode='1627883013' tonode='1627883022' priority='75' nolanes='2' speed='40' />
<edge id='10w35-1' fromnode='1627883013' tonode='1626924875' priority='75' nolanes='2' speed='40' />
<edge id='10w35-2' fromnode='1626924875' tonode='1627883013' priority='75' nolanes='2' speed='40' />
<edge id='10w36-1' fromnode='1626924875' tonode='1530997677' priority='75' nolanes='2' speed='40' />
<edge id='10w36-2' fromnode='1530997677' tonode='1626924875' priority='75' nolanes='2' speed='40' />
<edge id='10w37-1' fromnode='1530997677' tonode='1627877479' priority='75' nolanes='2' speed='40' />
<edge id='10w37-2' fromnode='1627877479' tonode='1530997677' priority='75' nolanes='2' speed='40' />
<edge id='10w38-1' fromnode='1627877479' tonode='1625187346' priority='75' nolanes='2' speed='40' />
<edge id='10w38-2' fromnode='1625187346' tonode='1627877479' priority='75' nolanes='2' speed='40' />
<edge id='12w0-1' fromnode='1542695670' tonode='1542695655' priority='75' nolanes='2' speed='40' />
<edge id='12w0-2' fromnode='1542695655' tonode='1542695670' priority='75' nolanes='2' speed='40' />
<edge id='12w1-1' fromnode='1542695655' tonode='1542695652' priority='75' nolanes='2' speed='40' />
<edge id='12w1-2' fromnode='1542695652' tonode='1542695655' priority='75' nolanes='2' speed='40' />
<edge id='12w2-1' fromnode='1542695652' tonode='1542695621' priority='75' nolanes='2' speed='40' />
<edge id='12w2-2' fromnode='1542695621' tonode='1542695652' priority='75' nolanes='2' speed='40' />
<edge id='13w0-1' fromnode='1542695724' tonode='1542695704' priority='75' nolanes='2' speed='40' />
<edge id='13w0-2' fromnode='1542695704' tonode='1542695724' priority='75' nolanes='2' speed='40' />
<edge id='13w1-1' fromnode='1542695704' tonode='1542695647' priority='75' nolanes='2' speed='40' />
<edge id='13w1-2' fromnode='1542695647' tonode='1542695704' priority='75' nolanes='2' speed='40' />
<edge id='13w2-1' fromnode='1542695647' tonode='1542695616' priority='75' nolanes='2' speed='40' />
<edge id='13w2-2' fromnode='1542695616' tonode='1542695647' priority='75' nolanes='2' speed='40' />
<edge id='13w3-1' fromnode='1542695616' tonode='1542695550' priority='75' nolanes='2' speed='40' />
<edge id='13w3-2' fromnode='1542695550' tonode='1542695616' priority='75' nolanes='2' speed='40' />
<edge id='13w4-1' fromnode='1542695550' tonode='1542695724' priority='75' nolanes='2' speed='40' />
<edge id='13w4-2' fromnode='1542695724' tonode='1542695550' priority='75' nolanes='2' speed='40' />
<edge id='14w0-1' fromnode='2277971466' tonode='2277971452' priority='75' nolanes='2' speed='40' />
<edge id='14w0-2' fromnode='2277971452' tonode='2277971466' priority='75' nolanes='2' speed='40' />
<edge id='14w1-1' fromnode='2277971452' tonode='2277971451' priority='75' nolanes='2' speed='40' />
<edge id='14w1-2' fromnode='2277971451' tonode='2277971452' priority='75' nolanes='2' speed='40' />
<edge id='14w2-1' fromnode='2277971451' tonode='2277971465' priority='75' nolanes='2' speed='40' />
<edge id='14w2-2' fromnode='2277971465' tonode='2277971451' priority='75' nolanes='2' speed='40' />
<edge id='14w3-1' fromnode='2277971465' tonode='2277971466' priority='75' nolanes='2' speed='40' />
<edge id='14w3-2' fromnode='2277971466' tonode='2277971465' priority='75' nolanes='2' speed='40' />
<edge id='15w0-1' fromnode='2277971431' tonode='2277971430' priority='75' nolanes='2' speed='40' />
<edge id='15w0-2' fromnode='2277971430' tonode='2277971431' priority='75' nolanes='2' speed='40' />
<edge id='15w1-1' fromnode='2277971430' tonode='2277971428' priority='75' nolanes='2' speed='40' />
<edge id='15w1-2' fromnode='2277971428' tonode='2277971430' priority='75' nolanes='2' speed='40' />
<edge id='15w2-1' fromnode='2277971428' tonode='2277971426' priority='75' nolanes='2' speed='40' />
<edge id='15w2-2' fromnode='2277971426' tonode='2277971428' priority='75' nolanes='2' speed='40' />
<edge id='15w3-1' fromnode='2277971426' tonode='2277971404' priority='75' nolanes='2' speed='40' />
<edge id='15w3-2' fromnode='2277971404' tonode='2277971426' priority='75' nolanes='2' speed='40' />
<edge id='15w4-1' fromnode='2277971404' tonode='2277971400' priority='75' nolanes='2' speed='40' />
<edge id='15w4-2' fromnode='2277971400' tonode='2277971404' priority='75' nolanes='2' speed='40' />
<edge id='15w5-1' fromnode='2277971400' tonode='2277971398' priority='75' nolanes='2' speed='40' />
<edge id='15w5-2' fromnode='2277971398' tonode='2277971400' priority='75' nolanes='2' speed='40' />
<edge id='15w6-1' fromnode='2277971398' tonode='2277971403' priority='75' nolanes='2' speed='40' />
<edge id='15w6-2' fromnode='2277971403' tonode='2277971398' priority='75' nolanes='2' speed='40' />
<edge id='15w7-1' fromnode='2277971403' tonode='2277971405' priority='75' nolanes='2' speed='40' />
<edge id='15w7-2' fromnode='2277971405' tonode='2277971403' priority='75' nolanes='2' speed='40' />
<edge id='15w8-1' fromnode='2277971405' tonode='2277971406' priority='75' nolanes='2' speed='40' />
<edge id='15w8-2' fromnode='2277971406' tonode='2277971405' priority='75' nolanes='2' speed='40' />
<edge id='15w9-1' fromnode='2277971406' tonode='2277971408' priority='75' nolanes='2' speed='40' />
<edge id='15w9-2' fromnode='2277971408' tonode='2277971406' priority='75' nolanes='2' speed='40' />
<edge id='15w10-1' fromnode='2277971408' tonode='2277971413' priority='75' nolanes='2' speed='40' />
<edge id='15w10-2' fromnode='2277971413' tonode='2277971408' priority='75' nolanes='2' speed='40' />
<edge id='15w11-1' fromnode='2277971413' tonode='2277971418' priority='75' nolanes='2' speed='40' />
<edge id='15w11-2' fromnode='2277971418' tonode='2277971413' priority='75' nolanes='2' speed='40' />
<edge id='15w12-1' fromnode='2277971418' tonode='2277971421' priority='75' nolanes='2' speed='40' />
<edge id='15w12-2' fromnode='2277971421' tonode='2277971418' priority='75' nolanes='2' speed='40' />
<edge id='15w13-1' fromnode='2277971421' tonode='2277971423' priority='75' nolanes='2' speed='40' />
<edge id='15w13-2' fromnode='2277971423' tonode='2277971421' priority='75' nolanes='2' speed='40' />
<edge id='15w14-1' fromnode='2277971423' tonode='2277971424' priority='75' nolanes='2' speed='40' />
<edge id='15w14-2' fromnode='2277971424' tonode='2277971423' priority='75' nolanes='2' speed='40' />
<edge id='15w15-1' fromnode='2277971424' tonode='2277971425' priority='75' nolanes='2' speed='40' />
<edge id='15w15-2' fromnode='2277971425' tonode='2277971424' priority='75' nolanes='2' speed='40' />
<edge id='15w16-1' fromnode='2277971425' tonode='2277971429' priority='75' nolanes='2' speed='40' />
<edge id='15w16-2' fromnode='2277971429' tonode='2277971425' priority='75' nolanes='2' speed='40' />
<edge id='15w17-1' fromnode='2277971429' tonode='2277971432' priority='75' nolanes='2' speed='40' />
<edge id='15w17-2' fromnode='2277971432' tonode='2277971429' priority='75' nolanes='2' speed='40' />
<edge id='15w18-1' fromnode='2277971432' tonode='2277971433' priority='75' nolanes='2' speed='40' />
<edge id='15w18-2' fromnode='2277971433' tonode='2277971432' priority='75' nolanes='2' speed='40' />
<edge id='15w19-1' fromnode='2277971433' tonode='2277971434' priority='75' nolanes='2' speed='40' />
<edge id='15w19-2' fromnode='2277971434' tonode='2277971433' priority='75' nolanes='2' speed='40' />
<edge id='15w20-1' fromnode='2277971434' tonode='2277971435' priority='75' nolanes='2' speed='40' />
<edge id='15w20-2' fromnode='2277971435' tonode='2277971434' priority='75' nolanes='2' speed='40' />
<edge id='15w21-1' fromnode='2277971435' tonode='2277971431' priority='75' nolanes='2' speed='40' />
<edge id='15w21-2' fromnode='2277971431' tonode='2277971435' priority='75' nolanes='2' speed='40' />
<edge id='16w0-1' fromnode='2277971467' tonode='2277971468' priority='75' nolanes='2' speed='40' />
<edge id='16w0-2' fromnode='2277971468' tonode='2277971467' priority='75' nolanes='2' speed='40' />
<edge id='16w1-1' fromnode='2277971468' tonode='2277971469' priority='75' nolanes='2' speed='40' />
<edge id='16w1-2' fromnode='2277971469' tonode='2277971468' priority='75' nolanes='2' speed='40' />
<edge id='16w2-1' fromnode='2277971469' tonode='2277971463' priority='75' nolanes='2' speed='40' />
<edge id='16w2-2' fromnode='2277971463' tonode='2277971469' priority='75' nolanes='2' speed='40' />
<edge id='16w3-1' fromnode='2277971463' tonode='2277971464' priority='75' nolanes='2' speed='40' />
<edge id='16w3-2' fromnode='2277971464' tonode='2277971463' priority='75' nolanes='2' speed='40' />
<edge id='16w4-1' fromnode='2277971464' tonode='2277971455' priority='75' nolanes='2' speed='40' />
<edge id='16w4-2' fromnode='2277971455' tonode='2277971464' priority='75' nolanes='2' speed='40' />
<edge id='16w5-1' fromnode='2277971455' tonode='2277971458' priority='75' nolanes='2' speed='40' />