<edges>
<edge id='0_0-1' fromnode='0n1' tonode='0n0' priority='75' nolanes='2' speed='40' />
<edge id='0_0-2' fromnode='0n0' tonode='0n1' priority='75' nolanes='2' speed='40' />
<edge id='1_0-1' fromnode='0n1' tonode='0n2' priority='75' nolanes='2' speed='40' />
<edge id='1_0-2' fromnode='0n2' tonode='0n1' priority='75' nolanes='2' speed='40' />
<edge id='2_0-1' fromnode='0n2' tonode='0n3' priority='75' nolanes='2' speed='40' />
<edge id='2_0-2' fromnode='0n3' tonode='0n2' priority='75' nolanes='2' speed='40' />
<edge id='3_0-1' fromnode='0n3' tonode='0n4' priority='75' nolanes='2' speed='40' />
<edge id='3_0-2' fromnode='0n4' tonode='0n3' priority='75' nolanes='2' speed='40' />
<edge id='4_0-1' fromnode='0n4' tonode='0n5' priority='75' nolanes='2' speed='40' />
<edge id='4_0-2' fromnode='0n5' tonode='0n4' priority='75' nolanes='2' speed='40' />
<edge id='5_0-1' fromnode='0n5' tonode='0n6' priority='75' nolanes='2' speed='40' />
<edge id='5_0-2' fromnode='0n6' tonode='0n5' priority='75' nolanes='2' speed='40' />
<edge id='6_0-1' fromnode='0n6' tonode='0n7' priority='75' nolanes='2' speed='40' />
<edge id='6_0-2' fromnode='0n7' tonode='0n6' priority='75' nolanes='2' speed='40' />
<edge id='7_0-1' fromnode='0n7' tonode='0n8' priority='75' nolanes='2' speed='40' />
<edge id='7_0-2' fromnode='0n8' tonode='0n7' priority='75' nolanes='2' speed='40' />
<edge id='8_0-1' fromnode='0n8' tonode='0n9' priority='75' nolanes='2' speed='40' />
<edge id='8_0-2' fromnode='0n9' tonode='0n8' priority='75' nolanes='2' speed='40' />
<edge id='9_0-1' fromnode='0n9' tonode='0n10' priority='75' nolanes='2' speed='40' />
<edge id='9_0-2' fromnode='0n10' tonode='0n9' priority='75' nolanes='2' speed='40' />
<edge id='10_0-1' fromnode='0n10' tonode='0n11' priority='75' nolanes='2' speed='40' />
<edge id='10_0-2' fromnode='0n11' tonode='0n10' priority='75' nolanes='2' speed='40' />
<edge id='11_0-1' fromnode='0n11' tonode='0n12' priority='75' nolanes='2' speed='40' />
<edge id='11_0-2' fromnode='0n12' tonode='0n11' priority='75' nolanes='2' speed='40' />
<edge id='12_0-1' fromnode='0n12' tonode='0n13' priority='75' nolanes='2' speed='40' />
<edge id='12_0-2' fromnode='0n13' tonode='0n12' priority='75' nolanes='2' speed='40' />
<edge id='13_0-1' fromnode='0n13' tonode='0n14' priority='75' nolanes='2' speed='40' />
<edge id='13_0-2' fromnode='0n14' tonode='0n13' priority='75' nolanes='2' speed='40' />
<edge id='14_0-1' fromnode='0n14' tonode='0n15' priority='75' nolanes='2' speed='40' />
<edge id='14_0-2' fromnode='0n15' tonode='0n14' priority='75' nolanes='2' speed='40' />
<edge id='15_0-1' fromnode='0n15' tonode='0n16' priority='75' nolanes='2' speed='40' />
<edge id='15_0-2' fromnode='0n16' tonode='0n15' priority='75' nolanes='2' speed='40' />
<edge id='16_0-1' fromnode='0n16' tonode='0n17' priority='75' nolanes='2' speed='40' />
<edge id='16_0-2' fromnode='0n17' tonode='0n16' priority='75' nolanes='2' speed='40' />
<edge id='17_0-1' fromnode='0n17' tonode='0n18' priority='75' nolanes='2' speed='40' />
<edge id='17_0-2' fromnode='0n18' tonode='0n17' priority='75' nolanes='2' speed='40' />
<edge id='18_0-1' fromnode='0n18' tonode='0n19' priority='75' nolanes='2' speed='40' />
<edge id='18_0-2' fromnode='0n19' tonode='0n18' priority='75' nolanes='2' speed='40' />
<edge id='19_0-1' fromnode='0n19' tonode='0n20' priority='75' nolanes='2' speed='40' />
<edge id='19_0-2' fromnode='0n20' tonode='0n19' priority='75' nolanes='2' speed='40' />
<edge id='20_0-1' fromnode='0n20' tonode='0n21' priority='75' nolanes='2' speed='40' />
<edge id='20_0-2' fromnode='0n21' tonode='0n20' priority='75' nolanes='2' speed='40' />
<edge id='21_0-1' fromnode='0n22' tonode='0n21' priority='75' nolanes='2' speed='40' />
<edge id='21_0-2' fromnode='0n21' tonode='0n22' priority='75' nolanes='2' speed='40' />
<edge id='22_0-1' fromnode='0n23' tonode='0n22' priority='75' nolanes='2' speed='40' />
<edge id='22_0-2' fromnode='0n22' tonode='0n23' priority='75' nolanes='2' speed='40' />
</edges>