<nodes>
<node id='2277971402' x='219785.20480471' y='2556501.4484276' type='traffic_light' />
<node id='2277971420' x='219768.81592235' y='2556729.2964336' type='traffic_light' />
<node id='2277971447' x='219599.84695535' y='2557507.8738003' type='traffic_light' />
<node id='1241652454' x='220191.54814422' y='2556522.5098516' type='priority' />
<node id='1241652873' x='220241.0672009' y='2556547.0735705' type='priority' />
<node id='1241652886' x='219865.15225087' y='2556476.610021' type='traffic_light' />
<node id='1241908723' x='220200.89970745' y='2557401.1866832' type='priority' />
<node id='1241908734' x='219171.89116707' y='2557372.031285' type='priority' />
<node id='1241908740' x='218896.48970254' y='2556867.4955362' type='priority' />
<node id='1241908774' x='219810.81540723' y='2557437.8748052' type='traffic_light' />
<node id='1241908806' x='218755.45919692' y='2557524.9143549' type='priority' />
<node id='1241908830' x='219423.28143718' y='2556442.525475' type='traffic_light' />
<node id='1241908848' x='220172.88066385' y='2557423.644037' type='priority' />
<node id='1241908864' x='218982.59085573' y='2556856.5561193' type='priority' />
<node id='1241908874' x='219768.23334204' y='2556873.7937825' type='priority' />
<node id='1241908876' x='219434.84325922' y='2556286.6059726' type='priority' />
<node id='1241908965' x='218787.28368708' y='2557143.0085566' type='priority' />
<node id='1241908992' x='220201.29522496' y='2557181.8846023' type='priority' />
<node id='1241909008' x='220280.2972544' y='2556902.8827514' type='priority' />
<node id='1241909011' x='219760.60837421' y='2556865.7465256' type='priority' />
<node id='1241909016' x='219349.25424595' y='2557490.4449294' type='priority' />
<node id='1241909026' x='219369.35022595' y='2557102.833133' type='priority' />
<node id='1241909037' x='219393.64152658' y='2556736.4995577' type='priority' />
<node id='1241909074' x='218768.11182324' y='2557463.4210874' type='priority' />
<node id='1241909109' x='218790.80653345' y='2556902.4435917' type='traffic_light' />
<node id='1241909111' x='220185.66588294' y='2557423.1386859' type='priority' />
<node id='1241909122' x='219083.74030209' y='2556867.3006688' type='traffic_light' />
<node id='1241909129' x='220129.50194301' y='2556896.2292763' type='priority' />
<node id='1241909228' x='218783.13987471' y='2557344.540257' type='traffic_light' />
<node id='1241909232' x='219760.46627294' y='2556844.4923812' type='priority' />
<node id='1241909233' x='219398.08691331' y='2556829.1350839' type='traffic_light' />
<node id='1241909251' x='219806.18307359' y='2557575.222175' type='priority' />
<node id='1241909261' x='219787.36105582' y='2556468.7913638' type='priority' />
<node id='1241909273' x='219423.11232826' y='2556988.5795503' type='priority' />
<node id='1241909283' x='218791.33082856' y='2556759.1652597' type='priority' />
<node id='1241909286' x='220206.03242042' y='2557004.449572' type='priority' />
<node id='1241909291' x='219389.74983186' y='2557377.3821342' type='traffic_light' />
<node id='1241909294' x='219929.1743221' y='2556885.6398314' type='priority' />
<node id='1241909328' x='219664.34012754' y='2557414.2443537' type='traffic_light' />
<node id='1241909337' x='220193.479163' y='2557418.2711521' type='priority' />
<node id='1241909365' x='219438.19443178' y='2556127.4935663' type='priority' />
<node id='1241909371' x='219023.90321904' y='2557360.7816287' type='traffic_light' />
<node id='1241909378' x='219364.40358905' y='2557297.5184969' type='priority' />
<node id='1241909415' x='218742.58637697' y='2557563.2596137' type='priority' />
<node id='1241909461' x='219256.4462893' y='2556447.4413167' type='priority' />
<node id='1241909474' x='220192.64147712' y='2556898.1172989' type='priority' />
<node id='1241909597' x='218791.58171715' y='2556451.4221303' type='priority' />
<node id='1241909599' x='220199.3818387' y='2557409.3720149' type='priority' />
<node id='1241909609' x='219778.32480638' y='2556876.6856395' type='priority' />
<node id='1241909648' x='219432.12700158' y='2556204.6773186' type='priority' />
<node id='1241909688' x='219542.73205887' y='2557398.5937552' type='priority' />
<node id='1241909728' x='220039.88212141' y='2557426.5225802' type='priority' />
<node id='1241908704' x='219634.15083121' y='2556458.2975029' type='traffic_light' />
<node id='1572017344' x='220100.51625794' y='2556512.2332151' type='priority' />
<node id='1572017500' x='219023.03000603' y='2557481.7565272' type='priority' />
<node id='1241652640' x='220140.67033347' y='2556147.0583784' type='priority' />
<node id='1241909486' x='219454.29430108' y='2556042.3636575' type='priority' />
<node id='1848255425' x='219911.63059227' y='2556196.4754775' type='priority' />
<node id='1848255426' x='219898.08194893' y='2556210.4718911' type='priority' />
<node id='1848255427' x='219887.03336654' y='2556227.1146048' type='priority' />
<node id='1848255428' x='219877.44012867' y='2556241.5356774' type='priority' />
<node id='1848255429' x='219873.46305937' y='2556253.6349945' type='priority' />
<node id='1848255430' x='219869.40887144' y='2556261.0699078' type='priority' />
<node id='1848255431' x='219866.83283763' y='2556281.7321377' type='priority' />
<node id='1848255432' x='219865.78174475' y='2556317.5713777' type='priority' />
<node id='1848255437' x='219868.98863533' y='2556567.5499701' type='priority' />
<node id='1848255438' x='219868.40131461' y='2556576.1501324' type='priority' />
<node id='1848255439' x='219897.41844933' y='2556662.7171754' type='priority' />
<node id='1848255440' x='219908.7178561' y='2556686.3002245' type='priority' />
<node id='1848255441' x='219921.73105923' y='2556708.8758885' type='priority' />
<node id='1848255442' x='219937.03402673' y='2556722.3318687' type='priority' />
<node id='1848255443' x='219952.65439303' y='2556726.4612983' type='priority' />
<node id='1848255444' x='219976.62721589' y='2556728.217745' type='priority' />
<node id='1848255445' x='220107.91053224' y='2556754.9624938' type='priority' />
<node id='1848255446' x='220258.69574041' y='2556781.8199724' type='priority' />
<node id='1848255447' x='220343.92458494' y='2556799.8640858' type='priority' />
</nodes>
