<nodes>
<node id='0n0' x='731622.14601657' y='15498858.752597' type='traffic_light' />
<node id='0n1' x='731485.13157198' y='15498870.251763' type='traffic_light' />
<node id='0n2' x='731453.13853323' y='15498863.601371' type='traffic_light' />
<node id='0n3' x='731292.28410336' y='15498653.128587' type='traffic_light' />
<node id='1n0' x='731511.98996072' y='15498703.081938' type='traffic_light' />
<node id='1n1' x='731458.98552604' y='15498926.834927' type='traffic_light' />
<node id='1n2' x='731337.27512329' y='15499089.458292' type='traffic_light' />
<node id='1n3' x='731207.17625643' y='15499306.614817' type='traffic_light' />
<node id='2n0' x='731500.32501091' y='15498703.50634' type='traffic_light' />
<node id='2n1' x='731613.31444327' y='15498868.6533' type='traffic_light' />
<node id='c0' x='731607.38799761' y='15498859.991307' type='traffic_light' />
<node id='c1' x='731472.98777093' y='15498867.727445' type='traffic_light' />
<node id='c3' x='731508.91520328' y='15498716.062158' type='traffic_light' />
</nodes>
<!-- offset_x: 731207.17625643, offset_y: 15498653.128587 -->