<nodes>
<node id='78916875' x='221564.12091865' y='2552906.0672392' type='traffic_light' />
<node id='78916876' x='221036.43849333' y='2553294.9800598' type='traffic_light' />
<node id='78916878' x='219949.42818282' y='2554297.6899968' type='traffic_light' />
<node id='254539024' x='222093.26683009' y='2553516.3062476' type='traffic_light' />
<node id='254538990' x='221094.66257837' y='2561558.1662473' type='traffic_light' />
<node id='254538996' x='221143.15858185' y='2560786.8654848' type='traffic_light' />
<node id='268935947' x='222403.33020978' y='2553719.5258375' type='traffic_light' />
<node id='268936031' x='224151.45362982' y='2560630.6739622' type='traffic_light' />
<node id='268936039' x='224266.03054147' y='2561252.8867638' type='traffic_light' />
<node id='268936044' x='224344.03525045' y='2561668.8439257' type='traffic_light' />
<node id='268936045' x='224398.33223154' y='2561850.7233795' type='traffic_light' />
<node id='268936047' x='224441.66977082' y='2561939.2583939' type='traffic_light' />
<node id='268936018' x='223104.45715056' y='2555059.089148' type='traffic_light' />
<node id='290976661' x='224187.1227257' y='2560790.9874457' type='traffic_light' />
<node id='307351825' x='222808.06446873' y='2553804.8973651' type='traffic_light' />
<node id='307351830' x='222324.07072845' y='2553653.0377548' type='traffic_light' />
<node id='307351837' x='223506.90355981' y='2554346.4601081' type='traffic_light' />
<node id='307351838' x='223615.8861086' y='2554647.0303648' type='traffic_light' />
<node id='307351839' x='223934.87833199' y='2555524.9744122' type='traffic_light' />
<node id='307351840' x='224005.69192734' y='2555706.9927317' type='traffic_light' />
<node id='307351841' x='224097.10434428' y='2555949.7173738' type='traffic_light' />
<node id='307351842' x='224120.76289601' y='2556013.3704249' type='traffic_light' />
<node id='307351843' x='224148.58060161' y='2556059.0597902' type='traffic_light' />
<node id='307351844' x='224235.71804251' y='2556151.3427106' type='traffic_light' />
<node id='307351898' x='224463.0928908' y='2556370.7050409' type='traffic_light' />
<node id='307351971' x='225014.28471307' y='2556920.9027986' type='traffic_light' />
<node id='307352025' x='225093.7283723' y='2557002.8915478' type='traffic_light' />
<node id='307352086' x='225176.60779816' y='2557085.5599694' type='traffic_light' />
<node id='307352152' x='225473.79567053' y='2560267.4057391' type='traffic_light' />
<node id='307352153' x='225993.48997285' y='2561621.8444636' type='traffic_light' />
<node id='307352154' x='226033.31020065' y='2561709.1177381' type='traffic_light' />
<node id='307352155' x='226086.79259402' y='2561774.1307436' type='traffic_light' />
<node id='307352156' x='226248.53181015' y='2561929.1509022' type='traffic_light' />
<node id='307352157' x='226524.91195279' y='2562194.0563858' type='traffic_light' />
<node id='307352158' x='227105.51394143' y='2562750.0226322' type='traffic_light' />
<node id='307352159' x='227200.10721446' y='2562864.5996312' type='traffic_light' />
<node id='307352160' x='227284.00723558' y='2562990.1889066' type='traffic_light' />
<node id='307352150' x='225400.9454171' y='2559992.9505627' type='traffic_light' />
<node id='310212519' x='222871.88143682' y='2559650.7522576' type='traffic_light' />
<node id='310212520' x='222875.53397698' y='2559430.0085843' type='traffic_light' />
<node id='310212558' x='222895.61055573' y='2556969.5789199' type='traffic_light' />
<node id='310212596' x='222484.12640951' y='2554285.9512069' type='traffic_light' />
<node id='310212587' x='222488.5639198' y='2554314.5726437' type='traffic_light' />
<node id='310212592' x='222532.40934604' y='2554588.8388147' type='traffic_light' />
<node id='310212636' x='222552.77037478' y='2553811.477618' type='traffic_light' />
<node id='310212645' x='222476.65890898' y='2553682.4140805' type='traffic_light' />
<node id='310212555' x='222881.02513262' y='2558772.4232839' type='traffic_light' />
<node id='310212603' x='222620.60280638' y='2553688.6012303' type='traffic_light' />
<node id='310212605' x='222482.32104206' y='2554246.6528301' type='traffic_light' />
<node id='316236177' x='219346.13528663' y='2554673.3490782' type='traffic_light' />
<node id='316236182' x='220205.9952629' y='2554080.1696307' type='traffic_light' />
<node id='316236292' x='219603.24317495' y='2554522.6798023' type='traffic_light' />
<node id='316236318' x='220941.93996265' y='2553362.6716069' type='traffic_light' />
<node id='316236343' x='221894.40473486' y='2552727.0533189' type='traffic_light' />
<node id='316236287' x='219348.26558533' y='2554659.5442808' type='traffic_light' />
<node id='316236313' x='220496.19901725' y='2553782.7187997' type='traffic_light' />
<node id='316236338' x='221552.82065648' y='2552899.494807' type='traffic_light' />
<node id='316236308' x='220187.67575102' y='2554077.1540225' type='traffic_light' />
<node id='316236281' x='219125.92487799' y='2554756.2131693' type='traffic_light' />
<node id='316236276' x='218971.26598313' y='2554809.8985715' type='traffic_light' />
<node id='453417289' x='221140.59325105' y='2555132.9903147' type='traffic_light' />
<node id='453417272' x='221442.11260277' y='2557421.0584406' type='traffic_light' />
<node id='453417410' x='221652.2734078' y='2557347.544077' type='traffic_light' />
<node id='453417411' x='221713.73712765' y='2557165.4202418' type='traffic_light' />
<node id='453417414' x='221702.92564758' y='2557139.2337892' type='traffic_light' />
<node id='453417415' x='221709.14751055' y='2557117.1411028' type='traffic_light' />
<node id='453417418' x='221719.24390075' y='2557092.2499656' type='traffic_light' />
<node id='453417419' x='221881.36726951' y='2557119.5214711' type='traffic_light' />
<node id='453417421' x='221861.04212938' y='2557200.7805678' type='traffic_light' />
<node id='453417314' x='221191.92040031' y='2554062.4040361' type='traffic_light' />
<node id='453417317' x='221204.19167259' y='2554028.6505132' type='traffic_light' />
<node id='453417342' x='221546.4814806' y='2556680.4223679' type='traffic_light' />
<node id='453417341' x='221528.02322619' y='2556676.9204816' type='traffic_light' />
<node id='453417395' x='221681.71304036' y='2557073.6649272' type='traffic_light' />
<node id='453417397' x='221491.84641456' y='2557041.4707627' type='traffic_light' />
<node id='453417401' x='222118.60165397' y='2557158.6196761' type='traffic_light' />
<node id='453417398' x='221986.92244901' y='2557129.3719619' type='traffic_light' />
<node id='529926069' x='222795.27711739' y='2553819.286485' type='traffic_light' />
<node id='529926072' x='223151.22404294' y='2554042.6269274' type='traffic_light' />
<node id='529926073' x='223597.87952671' y='2554648.0833138' type='traffic_light' />
<node id='529926074' x='223486.27928038' y='2554354.033648' type='traffic_light' />
<node id='529926075' x='223420.4688001' y='2554249.6784584' type='traffic_light' />
<node id='529926076' x='224219.55017764' y='2556159.1547257' type='traffic_light' />
<node id='529926077' x='224134.24092515' y='2556070.3845339' type='traffic_light' />
<node id='529926078' x='224098.11226665' y='2556013.7993663' type='traffic_light' />
<node id='529926079' x='224071.77498703' y='2555951.6697207' type='traffic_light' />
<node id='529926080' x='223982.73345485' y='2555709.1009151' type='traffic_light' />
<node id='529926081' x='223914.58738219' y='2555526.0803491' type='traffic_light' />
<node id='529926082' x='224446.7731694' y='2556383.0633984' type='traffic_light' />
<node id='529926084' x='225277.19314955' y='2557366.8972952' type='traffic_light' />
<node id='529926085' x='225271.33002789' y='2557292.7646536' type='traffic_light' />
<node id='529926087' x='225250.05527688' y='2557211.7672034' type='traffic_light' />
<node id='529926091' x='225291.12679463' y='2557795.8592267' type='traffic_light' />
<node id='529926092' x='225384.73063043' y='2559951.7454561' type='traffic_light' />
<node id='529926093' x='225451.25701617' y='2560267.9864989' type='traffic_light' />
<node id='529926107' x='226068.13819466' y='2561782.397136' type='traffic_light' />
<node id='529926108' x='226012.8634815' y='2561710.7566407' type='traffic_light' />
<node id='529926109' x='225970.71191392' y='2561618.7608357' type='traffic_light' />
<node id='529926110' x='226227.19643402' y='2561935.9591212' type='traffic_light' />
<node id='529926111' x='227267.14349106' y='2562990.9628329' type='traffic_light' />
<node id='529926112' x='227178.24909197' y='2562862.9382731' type='traffic_light' />
<node id='529926114' x='227074.98003399' y='2562747.4784573' type='traffic_light' />
<node id='529926086' x='225264.23154562' y='2557257.952599' type='traffic_light' />
<node id='1241652032' x='219329.79693513' y='2555379.3757053' type='traffic_light' />
<node id='1241652033' x='221249.69020778' y='2557442.9434609' type='traffic_light' />
<node id='1241652034' x='221971.53875277' y='2555839.4113501' type='traffic_light' />
<node id='1241652036' x='221197.88392693' y='2557151.4933734' type='traffic_light' />
<node id='1241652037' x='222063.02718428' y='2556159.4160321' type='traffic_light' />
<node id='1241652039' x='219875.62968015' y='2556271.8699118' type='traffic_light' />
<node id='1241652040' x='219837.16103889' y='2556616.6335151' type='traffic_light' />
<node id='1241652041' x='221266.00491145' y='2557913.0987421' type='traffic_light' />
<node id='1241652042' x='221734.18107907' y='2555992.6539039' type='traffic_light' />
<node id='1241652043' x='222314.70244494' y='2557997.1738595' type='traffic_light' />
<node id='1241652045' x='221003.09289266' y='2557388.3076846' type='traffic_light' />
<node id='1241652046' x='220932.21902024' y='2557361.8908308' type='traffic_light' />
<node id='1241652047' x='221579.53658242' y='2556298.9078645' type='traffic_light' />
<node id='1241652049' x='222514.44685448' y='2557161.4066017' type='traffic_light' />
<node id='1241652051' x='222143.44656582' y='2557592.8392426' type='traffic_light' />
<node id='1241652053' x='221414.1275208' y='2555422.5481922' type='traffic_light' />
<node id='1241652055' x='219993.16239486' y='2556859.4716977' type='traffic_light' />
<node id='1241652056' x='221282.97108568' y='2557045.0313353' type='traffic_light' />
<node id='1241652060' x='222680.29951298' y='2556945.0230321' type='traffic_light' />
<node id='1241652061' x='220849.73496986' y='2556943.8066775' type='traffic_light' />
<node id='1241652062' x='222535.85422938' y='2558038.326826' type='traffic_light' />
<node id='1241652063' x='219928.64282616' y='2556439.1134646' type='traffic_light' />
<node id='1241652064' x='220479.64564822' y='2556833.7437806' type='traffic_light' />
<node id='1241652067' x='221154.07737062' y='2557414.7926825' type='traffic_light' />
<node id='1241652069' x='221034.75585063' y='2554996.0866131' type='traffic_light' />
<node id='1241652070' x='222307.74230217' y='2557708.6905554' type='traffic_light' />
<node id='1241652071' x='220271.9687772' y='2555836.701128' type='traffic_light' />
<node id='1241652072' x='221012.8807302' y='2557393.6441631' type='traffic_light' />
<node id='1241652073' x='221320.90530544' y='2557084.6649809' type='traffic_light' />
<node id='1241652075' x='222550.38637714' y='2556946.3031939' type='traffic_light' />
<node id='1241652077' x='221276.18851077' y='2557137.6426436' type='traffic_light' />
<node id='1241652078' x='220344.05717169' y='2556724.1886241' type='traffic_light' />
<node id='1241652079' x='222053.71665132' y='2557986.6214584' type='traffic_light' />
<node id='1241652080' x='220009.19576191' y='2556172.2501445' type='traffic_light' />
<node id='1241652081' x='221239.47078628' y='2557930.539135' type='traffic_light' />
<node id='1241652087' x='221784.56359095' y='2555508.659228' type='traffic_light' />
<node id='1241652083' x='221390.3902402' y='2557090.4515557' type='traffic_light' />
<node id='1241652084' x='220784.88296098' y='2557080.7366684' type='traffic_light' />
<node id='1241652086' x='221183.88446557' y='2557090.7554541' type='traffic_light' />
<node id='1241652088' x='220035.78214788' y='2556455.9366787' type='traffic_light' />
<node id='1241652089' x='220433.33885044' y='2556886.0335605' type='traffic_light' />
<node id='1241652091' x='221319.78456542' y='2557151.5808233' type='traffic_light' />
<node id='1241652093' x='221537.23758334' y='2555634.4719533' type='traffic_light' />
<node id='1241652095' x='221270.55088173' y='2557022.7872718' type='traffic_light' />
<node id='1241652096' x='220886.76175359' y='2556234.5100583' type='traffic_light' />
<node id='1241652098' x='221818.43082987' y='2556000.4291844' type='traffic_light' />
<node id='1241652099' x='220224.02034916' y='2556622.3230325' type='traffic_light' />
<node id='1241652101' x='221787.37207246' y='2557389.2484226' type='traffic_light' />
<node id='1241652102' x='220309.95410007' y='2556633.6044819' type='traffic_light' />
<node id='1241652103' x='221351.94505591' y='2557247.2341771' type='traffic_light' />
<node id='1241652104' x='221252.32837303' y='2557089.0910918' type='traffic_light' />
<node id='1241652105' x='221919.49064338' y='2555688.1152935' type='traffic_light' />
<node id='1241652107' x='222461.63875843' y='2557263.027752' type='traffic_light' />
<node id='1241652108' x='221048.72320393' y='2557188.2557392' type='traffic_light' />
<node id='1241652110' x='222323.78950942' y='2557887.0657571' type='traffic_light' />
<node id='1241652111' x='221415.08600795' y='2557356.5845549' type='traffic_light' />
<node id='1241652113' x='220421.15826577' y='2557503.7475187' type='traffic_light' />
<node id='1241652116' x='221142.06443332' y='2557256.6674612' type='traffic_light' />
<node id='1241652118' x='219433.17382793' y='2555433.4933457' type='traffic_light' />
<node id='1241652119' x='221222.57141631' y='2557431.8346238' type='traffic_light' />
<node id='1241652120' x='221947.94882184' y='2555888.07023' type='traffic_light' />
<node id='1241652121' x='221200.55236929' y='2557135.7062067' type='traffic_light' />
<node id='1241652122' x='222038.41453409' y='2556498.8565672' type='traffic_light' />
<node id='1241652112' x='220603.85445519' y='2559577.525951' type='traffic_light' />
<node id='1241652090' x='221538.04451751' y='2556678.8173661' type='traffic_light' />
<node id='1241652123' x='218909.68140067' y='2556026.844551' type='traffic_light' />
<node id='1241652138' x='222365.9644992' y='2557647.5744646' type='traffic_light' />
<node id='1241652124' x='219879.18752755' y='2556382.4315788' type='traffic_light' />
<node id='1241652126' x='219861.04977582' y='2556669.704678' type='traffic_light' />
<node id='1241652127' x='221739.81592896' y='2555949.9918458' type='traffic_light' />
<node id='1241652128' x='222310.89380237' y='2557753.605112' type='traffic_light' />
<node id='1241652132' x='220044.62496944' y='2556248.6452984' type='traffic_light' />
<node id='1241652134' x='220948.70176175' y='2557362.8465155' type='traffic_light' />
<node id='1241652135' x='222519.73370943' y='2557151.8439564' type='traffic_light' />
<node id='1241652137' x='220733.63439965' y='2559179.3997738' type='traffic_light' />
<node id='1241652140' x='221926.12674183' y='2558482.4159128' type='traffic_light' />
<node id='1241652142' x='221558.09406126' y='2555621.3275941' type='traffic_light' />
<node id='1241652152' x='221200.50167289' y='2557026.8974757' type='traffic_light' />
<node id='1241652153' x='222067.31159013' y='2557554.5459848' type='traffic_light' />
<node id='1241652155' x='222658.29722655' y='2556938.3383871' type='traffic_light' />
<node id='1241652156' x='220739.9698915' y='2556945.8567544' type='traffic_light' />
<node id='1241652158' x='222612.84308299' y='2558081.4049405' type='traffic_light' />
<node id='1241652165' x='219920.77366827' y='2556381.9074854' type='traffic_light' />
<node id='1241652168' x='220521.1782392' y='2556807.3994419' type='traffic_light' />
<node id='1241652170' x='221171.55580295' y='2557414.7215032' type='traffic_light' />
<node id='1241652171' x='221393.43978358' y='2557411.913691' type='traffic_light' />
<node id='1241652172' x='221206.43812227' y='2555577.3299108' type='traffic_light' />
<node id='1241652173' x='222303.35620388' y='2557742.9839912' type='traffic_light' />
<node id='1241652174' x='220729.93974595' y='2556924.2776798' type='traffic_light' />
<node id='1241652177' x='221346.69518518' y='2557119.6043835' type='traffic_light' />
<node id='1241652179' x='219984.58359473' y='2556679.5150819' type='traffic_light' />
<node id='1241652183' x='222553.11547128' y='2556958.0111277' type='traffic_light' />
<node id='1241652184' x='221280.911778' y='2557157.8247688' type='traffic_light' />
<node id='1241652185' x='220304.00427735' y='2556663.5727052' type='traffic_light' />
<node id='1241652186' x='220044.03125585' y='2556180.7855666' type='traffic_light' />
<node id='1241652191' x='221609.34408969' y='2556115.6558591' type='traffic_light' />
<node id='1241652193' x='221364.34079019' y='2557085.5841735' type='traffic_light' />
<node id='1241652194' x='220836.19615796' y='2557127.9658946' type='traffic_light' />
<node id='1241652196' x='222064.45865977' y='2557575.8887185' type='traffic_light' />
<node id='1241652198' x='221177.10262177' y='2557087.734472' type='traffic_light' />
<node id='1241652200' x='220970.03006123' y='2557170.8396043' type='traffic_light' />
<node id='1241652203' x='220022.59130877' y='2556512.0297426' type='traffic_light' />
<node id='1241652206' x='221033.5576524' y='2557298.5344605' type='traffic_light' />
<node id='1241652209' x='220383.67541598' y='2556795.0199495' type='traffic_light' />
<node id='1241652210' x='221937.60694444' y='2555731.0781585' type='traffic_light' />
<node id='1241652211' x='221326.76405589' y='2557175.6552364' type='traffic_light' />
<node id='1241652212' x='221609.25752156' y='2555765.6461898' type='traffic_light' />
<node id='1241652214' x='221237.67378806' y='2557008.604966' type='traffic_light' />
<node id='1241652216' x='219914.73578541' y='2556496.3616109' type='traffic_light' />
<node id='1241652219' x='219802.01101068' y='2556751.0171821' type='traffic_light' />
<node id='1241652220' x='221802.55293299' y='2556024.3415628' type='traffic_light' />
<node id='1241652222' x='222110.38382464' y='2557634.1603685' type='traffic_light' />
<node id='1241652224' x='220208.5992145' y='2556707.184116' type='traffic_light' />
<node id='1241652226' x='221769.17129817' y='2557452.9466008' type='traffic_light' />
<node id='1241652228' x='220351.59602144' y='2556789.0368209' type='traffic_light' />
<node id='1241652232' x='221402.82794472' y='2557430.4683852' type='traffic_light' />
<node id='1241652238' x='220252.84780732' y='2556541.0568735' type='traffic_light' />
<node id='1241652239' x='221228.58171683' y='2557078.5177541' type='traffic_light' />
<node id='1241652240' x='221720.55199111' y='2555858.5973603' type='traffic_light' />
<node id='1241652241' x='222602.64381308' y='2557024.850666' type='traffic_light' />
<node id='1241652243' x='221237.44214808' y='2557206.1911146' type='traffic_light' />
<node id='1241652245' x='222346.24276314' y='2557857.3905244' type='traffic_light' />
<node id='1241652247' x='219970.92416217' y='2556672.2457088' type='traffic_light' />
<node id='1241652256' x='220611.17969056' y='2559670.9938951' type='traffic_light' />
<node id='1241652257' x='220445.64228053' y='2557464.943228' type='traffic_light' />
<node id='1241652258' x='220936.90191976' y='2556313.8129103' type='traffic_light' />
<node id='1241652259' x='221161.88719993' y='2557271.7912394' type='traffic_light' />
<node id='1241652264' x='219721.1159481' y='2555520.0383713' type='traffic_light' />
<node id='1241652266' x='221175.09417622' y='2557422.4909475' type='traffic_light' />
<node id='1241652274' x='221947.33673785' y='2555948.3487263' type='traffic_light' />
<node id='1241652275' x='222475.61080236' y='2557272.8867011' type='traffic_light' />
<node id='1241652276' x='221211.77405454' y='2557121.7211495' type='traffic_light' />
<node id='1241652277' x='222074.30251159' y='2556620.4082065' type='traffic_light' />
<node id='1241652278' x='219943.60586441' y='2556260.3229467' type='traffic_light' />
<node id='1241652230' x='219525.86374827' y='2556047.959087' type='traffic_light' />
<node id='1241652202' x='222844.6734979' y='2557810.8005926' type='traffic_light' />
<node id='1241652282' x='221404.40873199' y='2557179.7602963' type='traffic_light' />
<node id='1241652292' x='219886.28382134' y='2556603.0565817' type='traffic_light' />
<node id='1241652294' x='219907.00407682' y='2556747.5092961' type='traffic_light' />
<node id='1241652295' x='221730.29494368' y='2555903.9212698' type='traffic_light' />
<node id='1241652296' x='222626.3436001' y='2558069.7725259' type='traffic_light' />
<node id='1241652297' x='220030.71972142' y='2556284.6697162' type='traffic_light' />
<node id='1241652298' x='220932.14996084' y='2556928.7581428' type='traffic_light' />
<node id='1241652299' x='222190.10182029' y='2554934.4376779' type='traffic_light' />
<node id='1241652308' x='221010.75403444' y='2557382.9668954' type='traffic_light' />
<node id='1241652310' x='221467.64077417' y='2557031.0164364' type='traffic_light' />
<node id='1241652312' x='222539.6572104' y='2557155.9071433' type='traffic_light' />
<node id='1241652313' x='220629.47485503' y='2559422.6859269' type='traffic_light' />
<node id='1241652315' x='221305.82501083' y='2557167.1905752' type='traffic_light' />
<node id='1241652317' x='221776.35028112' y='2558802.9993675' type='traffic_light' />
<node id='1241652321' x='221611.44006818' y='2555709.3834547' type='traffic_light' />
<node id='1241652326' x='221141.29773619' y='2557141.9317035' type='traffic_light' />
<node id='1241652330' x='221171.42595191' y='2557027.4397812' type='traffic_light' />
<node id='1241652335' x='222652.79484563' y='2556921.373359' type='traffic_light' />
<node id='1241652336' x='220675.80609106' y='2556899.5439034' type='traffic_light' />
<node id='1241652339' x='222634.94186226' y='2558099.4471591' type='traffic_light' />
<node id='1241652340' x='219917.79467781' y='2556292.3811964' type='traffic_light' />
<node id='1241652342' x='220569.02178674' y='2556801.096756' type='traffic_light' />
<node id='1241652344' x='221213.55257432' y='2557425.397574' type='traffic_light' />
<node id='1241652345' x='221628.21729063' y='2556119.3829355' type='traffic_light' />
<node id='1241652346' x='221161.48808755' y='2557152.5712385' type='traffic_light' />
<node id='1241652350' x='221631.52488687' y='2555982.0077192' type='traffic_light' />
<node id='1241652352' x='221298.02581508' y='2555873.6465322' type='traffic_light' />
<node id='1241652353' x='220647.53715329' y='2556832.9995069' type='traffic_light' />
<node id='1241652354' x='221351.77119897' y='2557359.9924202' type='traffic_light' />
<node id='1241652355' x='221340.22876838' y='2557133.5006755' type='traffic_light' />
<node id='1241652356' x='219815.88777707' y='2556843.1876079' type='traffic_light' />
<node id='1241652357' x='221818.71486463' y='2555590.1239443' type='traffic_light' />
<node id='1241652358' x='222516.98813912' y='2556971.903165' type='traffic_light' />
<node id='1241652359' x='220271.4236724' y='2556579.8536008' type='traffic_light' />
<node id='1241652360' x='220087.26625118' y='2556196.5671238' type='traffic_light' />
<node id='1241652361' x='220782.103254' y='2559051.7845653' type='traffic_light' />
<node id='1241652362' x='221351.53523549' y='2557069.6089455' type='traffic_light' />
<node id='1241652364' x='220418.20314165' y='2557715.6939016' type='traffic_light' />
<node id='1241652365' x='220728.93690476' y='2560226.5749693' type='traffic_light' />
<node id='1241652366' x='221155.57284109' y='2557100.9254821' type='traffic_light' />
<node id='1241652367' x='221005.41289766' y='2557184.6974773' type='traffic_light' />
<node id='1241652368' x='222408.28539556' y='2557634.9631962' type='traffic_light' />
<node id='1241652369' x='220041.34030716' y='2556541.9678862' type='traffic_light' />
<node id='1241652370' x='221953.86645991' y='2555754.1379809' type='traffic_light' />
<node id='1241652371' x='221337.63361297' y='2557196.1217597' type='traffic_light' />
<node id='1241652372' x='221631.99696874' y='2555924.192' type='traffic_light' />
<node id='1241652373' x='221210.27887915' y='2557008.0186639' type='traffic_light' />
<node id='1241652376' x='220208.07571851' y='2555936.7210793' type='traffic_light' />
<node id='1241652377' x='219809.63840333' y='2556649.7770037' type='traffic_light' />
<node id='1241652378' x='221776.56353949' y='2556037.1156537' type='traffic_light' />
<node id='1241652379' x='222353.54331625' y='2558050.5683433' type='traffic_light' />
<node id='1241652380' x='220183.77211652' y='2556712.3700104' type='traffic_light' />
<node id='1241652381' x='222495.96615609' y='2557256.5942164' type='traffic_light' />
<node id='1241652384' x='221693.30431643' y='2557495.7638513' type='traffic_light' />
<node id='1241652386' x='221372.11564462' y='2557607.6874704' type='traffic_light' />
<node id='1241652387' x='220160.76117358' y='2556503.447378' type='traffic_light' />
<node id='1241652388' x='221395.39093975' y='2557214.085121' type='traffic_light' />
<node id='1241652389' x='221381.24902778' y='2557136.8587786' type='traffic_light' />
<node id='1241652390' x='221719.48587318' y='2555801.2979495' type='traffic_light' />
<node id='1241652391' x='222668.94358' y='2557007.1075162' type='traffic_light' />
<node id='1241652394' x='221216.41380078' y='2557319.9147166' type='traffic_light' />
<node id='1241652395' x='222376.64987299' y='2557856.3268541' type='traffic_light' />
<node id='1241652396' x='219951.79481427' y='2556645.5398636' type='traffic_light' />
<node id='1241652397' x='221086.77473697' y='2557398.4270117' type='traffic_light' />
<node id='1241652399' x='219808.95138035' y='2556471.4123702' type='traffic_light' />
<node id='1241652400' x='221182.64063962' y='2557297.2378162' type='traffic_light' />
<node id='1241652401' x='222132.10619793' y='2557637.4026387' type='traffic_light' />
<node id='1241652402' x='219927.06702172' y='2555559.4479925' type='traffic_light' />
<node id='1241652403' x='221137.19712331' y='2557416.7035294' type='traffic_light' />
<node id='1241652404' x='221942.83602821' y='2555999.1020041' type='traffic_light' />
<node id='1241652405' x='222492.21052256' y='2557272.9774702' type='traffic_light' />
<node id='1241652406' x='221224.79431328' y='2557119.5166877' type='traffic_light' />
<node id='1241652409' x='222193.9766394' y='2556841.4758665' type='traffic_light' />
<node id='1241652410' x='219973.30281669' y='2556219.4920159' type='traffic_light' />
<node id='1241652411' x='221400.76098899' y='2557154.0167792' type='traffic_light' />
<node id='1241652398' x='220757.23247133' y='2559167.3659779' type='traffic_light' />
<node id='1241652323' x='220281.49729432' y='2556124.131087' type='traffic_light' />
<node id='1241652414' x='219931.62239425' y='2556700.5336669' type='traffic_light' />
<node id='1241652415' x='221631.41588323' y='2557388.0184204' type='traffic_light' />
<node id='1241652416' x='220006.71717822' y='2556764.8147397' type='traffic_light' />
<node id='1241652417' x='221211.9068469' y='2557076.0691489' type='traffic_light' />
<node id='1241652421' x='222773.37252778' y='2558224.604414' type='traffic_light' />
<node id='1241652422' x='220050.00742172' y='2556319.2747354' type='traffic_light' />
<node id='1241652423' x='220768.13659616' y='2556936.1541261' type='traffic_light' />
<node id='1241652425' x='222558.72993448' y='2557157.7696362' type='traffic_light' />
<node id='1241652426' x='221297.74077579' y='2557158.0983625' type='traffic_light' />
<node id='1241652430' x='221647.61236898' y='2555832.1927246' type='traffic_light' />
<node id='1241652432' x='220622.0500756' y='2559538.1187722' type='traffic_light' />
<node id='1241652433' x='220105.43205646' y='2556478.5271744' type='traffic_light' />
<node id='1241652434' x='221169.93982978' y='2557043.4043869' type='traffic_light' />
<node id='1241652436' x='222588.88499435' y='2556925.9393681' type='traffic_light' />
<node id='1241652438' x='220613.70172895' y='2556810.3913232' type='traffic_light' />
<node id='1241652440' x='220117.01429346' y='2556569.2665954' type='traffic_light' />
<node id='1241652441' x='220624.05765636' y='2556862.0095146' type='traffic_light' />
<node id='1241652442' x='221250.4128455' y='2557432.7671722' type='traffic_light' />
<node id='1241652443' x='221177.22400144' y='2557147.5564871' type='traffic_light' />
<node id='1241652445' x='221322.15283317' y='2557773.9835698' type='traffic_light' />
<node id='1241652447' x='221373.19932631' y='2555978.0961879' type='traffic_light' />
<node id='1241652448' x='220580.71984457' y='2556770.9215112' type='traffic_light' />
<node id='1241652449' x='221366.97344851' y='2557270.8149892' type='traffic_light' />
<node id='1241652450' x='221302.53025653' y='2557128.4959287' type='traffic_light' />
<node id='1241652452' x='222486.1520247' y='2557117.834391' type='traffic_light' />
<node id='1241652454' x='220191.54814422' y='2556522.5098516' type='traffic_light' />
<node id='1241652455' x='220097.51575393' y='2556207.3361247' type='traffic_light' />
<node id='1241652456' x='221353.33241708' y='2557047.2217231' type='traffic_light' />
<node id='1241652457' x='220427.06666296' y='2557634.9010726' type='traffic_light' />
<node id='1241652458' x='220657.19438547' y='2559802.4832754' type='traffic_light' />
<node id='1241652459' x='221142.51946386' y='2557111.7972751' type='traffic_light' />
<node id='1241652460' x='219865.65685961' y='2556490.4097159' type='traffic_light' />
<node id='1241652461' x='221043.31039635' y='2557227.2791549' type='traffic_light' />
<node id='1241652462' x='219822.28901115' y='2556844.4751551' type='traffic_light' />