<nodes>
<node id='0n0' x='69.255545' y='47.646858' type='priority' />
<node id='0n1' x='0.000000' y='0.000000' type='priority' />
<node id='0n2' x='52.361415' y='41.635674' type='priority' />
<node id='0n3' x='56.175360' y='45.595598' type='priority' />
<node id='0n4' x='63.858951' y='50.892215' type='priority' />
<node id='0n5' x='69.070178' y='52.803510' type='priority' />
<node id='0n6' x='78.107929' y='58.846239' type='priority' />
<node id='0n7' x='84.490375' y='63.862479' type='priority' />
<node id='0n8' x='90.926121' y='66.296496' type='priority' />
<node id='0n9' x='95.955380' y='70.779080' type='priority' />
<node id='0n10' x='100.954056' y='75.224970' type='priority' />
<node id='0n11' x='107.302700' y='80.381793' type='priority' />
<node id='0n12' x='112.281701' y='87.605843' type='priority' />
<node id='0n13' x='117.309998' y='92.240196' type='priority' />
<node id='0n14' x='124.788732' y='100.478009' type='priority' />
<node id='0n15' x='129.772679' y='105.106120' type='priority' />
<node id='0n16' x='136.051701' y='107.682245' type='priority' />
<node id='0n17' x='141.044027' y='109.730397' type='priority' />
<node id='0n18' x='147.089705' y='117.281919' type='priority' />
<node id='0n19' x='152.009278' y='119.260180' type='priority' />
<node id='0n20' x='158.111890' y='121.690956' type='priority' />
<node id='0n21' x='164.074691' y='126.526303' type='priority' />
<node id='0n22' x='168.937566' y='125.861885' type='priority' />
<node id='0n23' x='171.401680' y='124.301837' type='priority' />
<node id='c0' x='0.000473' y='0.000333' type='traffic_light' />
</nodes>
<!-- offset_x: 388752.77884465, offset_y: 13366746.237017 -->